[Format]      =  4.0
[Frequency]   =  0
[Precision]   =  1e-008
[MinAngle]    =  30
[DoSmartMesh] =  1
[Depth]       =  30
[LengthUnits] =  millimeters
[ProblemType] =  planar
[Coordinates] =  cartesian
[ACSolver]    =  0
[PrevType]    =  0
[PrevSoln]    =  ""
[Comment]     =  "Add comments here."
[PointProps]   = 0
[BdryProps]   = 1
  <BeginBdry>
    <BdryName> = "Limite"
    <BdryType> = 0
    <A_0> = 0
    <A_1> = 0
    <A_2> = 0
    <Phi> = 0
    <c0> = 0
    <c0i> = 0
    <c1> = 0
    <c1i> = 0
    <Mu_ssd> = 0
    <Sigma_ssd> = 0
    <innerangle> = 0
    <outerangle> = 0
  <EndBdry>
[BlockProps]  = 6
  <BeginBlock>
    <BlockName> = "Air"
    <Mu_x> = 1
    <Mu_y> = 1
    <H_c> = 0
    <H_cAngle> = 0
    <J_re> = 0
    <J_im> = 0
    <Sigma> = 0
    <d_lam> = 0
    <Phi_h> = 0
    <Phi_hx> = 0
    <Phi_hy> = 0
    <LamType> = 0
    <LamFill> = 1
    <NStrands> = 0
    <WireD> = 0
    <BHPoints> = 0
  <EndBlock>
  <BeginBlock>
    <BlockName> = "N35"
    <Mu_x> = 1.05
    <Mu_y> = 1.05
    <H_c> = 905659
    <H_cAngle> = 0
    <J_re> = 0
    <J_im> = 0
    <Sigma> = 0.66700000000000004
    <d_lam> = 0
    <Phi_h> = 0
    <Phi_hx> = 0
    <Phi_hy> = 0
    <LamType> = 0
    <LamFill> = 1
    <NStrands> = 0
    <WireD> = 0
    <BHPoints> = 0
  <EndBlock>
  <BeginBlock>
    <BlockName> = "10 AWG"
    <Mu_x> = 1
    <Mu_y> = 1
    <H_c> = 0
    <H_cAngle> = 0
    <J_re> = 0
    <J_im> = 0
    <Sigma> = 58
    <d_lam> = 0
    <Phi_h> = 0
    <Phi_hx> = 0
    <Phi_hy> = 0
    <LamType> = 3
    <LamFill> = 1
    <NStrands> = 1
    <WireD> = 2.5887801724742099
    <BHPoints> = 0
  <EndBlock>
  <BeginBlock>
    <BlockName> = "1010 Steel"
    <Mu_x> = 902.60000000000002
    <Mu_y> = 902.60000000000002
    <H_c> = 0
    <H_cAngle> = 0
    <J_re> = 0
    <J_im> = 0
    <Sigma> = 5.7999999999999998
    <d_lam> = 0
    <Phi_h> = 20
    <Phi_hx> = 0
    <Phi_hy> = 0
    <LamType> = 0
    <LamFill> = 1
    <NStrands> = 0
    <WireD> = 0
    <BHPoints> = 38
      0	0
      0.21186199999999999	79.577472
      0.26566499999999998	100.182101
      0.33237699999999998	126.121793
      0.414377	158.77793
      0.51381100000000002	199.88957099999999
      0.63189899999999999	251.646061
      0.76778400000000002	316.80362000000002
      0.917018	398.83212800000001
      1.0703530000000001	502.09990099999999
      1.2142550000000001	632.10632499999997
      1.3346370000000001	795.77471500000001
      1.4229810000000001	1001.821011
      1.480634	1261.2179289999999
      1.5172140000000001	1587.779301
      1.5445150000000001	1998.89571
      1.571296	2516.4606050000002
      1.6020490000000001	3168.036204
      1.638404	3988.3212819999999
      1.68049	5020.9990129999996
      1.727311	6321.0632500000002
      1.776659	7957.747155
      1.8254010000000001	10018.210114
      1.870557	12612.179292999999
      1.910809	15877.793009999999
      1.947222	19988.957103000001
      1.9823280000000001	25164.606051999999
      2.0182519999999999	31680.362036999999
      2.0553979999999998	39883.212823000002
      2.0925449999999999	50209.990126999997
      2.1280950000000001	63210.632496999999
      2.1616119999999999	79577.471546000001
      2.1946439999999998	100182.101136
      2.2303389999999998	126121.79292599999
      2.272386	158777.930096
      2.3242820000000002	199889.57102999999
      2.3893559999999998	251646.06052200001
      2.471238	316803.62037000002
  <EndBlock>
  <BeginBlock>
    <BlockName> = "1020 Steel"
    <Mu_x> = 760
    <Mu_y> = 760
    <H_c> = 0
    <H_cAngle> = 0
    <J_re> = 0
    <J_im> = 0
    <Sigma> = 5.7999999999999998
    <d_lam> = 0
    <Phi_h> = 20
    <Phi_hx> = 0
    <Phi_hy> = 0
    <LamType> = 0
    <LamFill> = 1
    <NStrands> = 0
    <WireD> = 0
    <BHPoints> = 38
      0	0
      0.16625200000000001	79.577472
      0.20872499999999999	100.182101
      0.26163500000000001	126.121793
      0.32714599999999999	158.77793
      0.407495	199.88957099999999
      0.50460400000000005	251.646061
      0.61936599999999997	316.80362000000002
      0.750502	398.83212800000001
      0.89319499999999996	502.09990099999999
      1.0382579999999999	632.10632499999997
      1.173276	795.77471500000001
      1.2867310000000001	1001.821011
      1.3735329999999999	1261.2179289999999
      1.4376580000000001	1587.779301
      1.4891890000000001	1998.89571
      1.5383439999999999	2516.4606050000002
      1.591321	3168.036204
      1.6497230000000001	3988.3212819999999
      1.711927	5020.9990129999996
      1.7747120000000001	6321.0632500000002
      1.8349759999999999	7957.747155
      1.8914420000000001	10018.210114
      1.945262	12612.179292999999
      1.998705	15877.793009999999
      2.0528520000000001	19988.957103000001
      2.1061839999999998	25164.606051999999
      2.1551490000000002	31680.362036999999
      2.1963750000000002	39883.212823000002
      2.2290079999999999	50209.990126999997
      2.2554500000000002	63210.632496999999
      2.2800530000000001	79577.471546000001
      2.3071359999999999	100182.101136
      2.3399749999999999	126121.79292599999
      2.3810440000000002	158777.930096
      2.4327079999999999	199889.57102999999
      2.4977480000000001	251646.06052200001
      2.5796269999999999	316803.62037000002
  <EndBlock>
  <BeginBlock>
    <BlockName> = "Aluminum, 1100"
    <Mu_x> = 1
    <Mu_y> = 1
    <H_c> = 0
    <H_cAngle> = 0
    <J_re> = 0
    <J_im> = 0
    <Sigma> = 34.450000000000003
    <d_lam> = 0
    <Phi_h> = 0
    <Phi_hx> = 0
    <Phi_hy> = 0
    <LamType> = 0
    <LamFill> = 1
    <NStrands> = 0
    <WireD> = 0
    <BHPoints> = 0
  <EndBlock>
[CircuitProps]  = 3
  <BeginCircuit>
    <CircuitName> = "A"
    <TotalAmps_re> = 0
    <TotalAmps_im> = 0
    <CircuitType> = 1
  <EndCircuit>
  <BeginCircuit>
    <CircuitName> = "B"
    <TotalAmps_re> = 0
    <TotalAmps_im> = 0
    <CircuitType> = 1
  <EndCircuit>
  <BeginCircuit>
    <CircuitName> = "C"
    <TotalAmps_re> = 0
    <TotalAmps_im> = 0
    <CircuitType> = 1
  <EndCircuit>
[NumPoints] = 216
-75	0	0	0
75	0	0	0
-5.6651232785977861	64.752655375963457	0	0
5.665123278597779	64.752655375963457	0	0
-5.6651232785977861	39.752655375963464	0	0
5.665123278597779	39.752655375963464	0	0
-37.282468362817994	53.24488287878448	0	0
-24.782468362818001	31.594247784173501	0	0
-27.470187013145463	58.910006157382256	0	0
-14.970187013145466	37.259371062771287	0	0
-58.910006157382249	27.47018701314547	0	0
-37.259371062771287	14.970187013145466	0	0
-53.244882878784466	37.282468362818008	0	0
-31.594247784173501	24.782468362818001	0	0
-64.752655375963457	-5.6651232785977808	0	0
-39.752655375963464	-5.6651232785977834	0	0
-64.752655375963457	5.6651232785977834	0	0
-39.752655375963464	5.6651232785977808	0	0
-53.24488287878448	-37.282468362817987	0	0
-31.594247784173504	-24.782468362817994	0	0
-58.910006157382256	-27.470187013145452	0	0
-37.259371062771287	-14.970187013145457	0	0
-27.470187013145456	-58.910006157382256	0	0
-14.970187013145459	-37.259371062771287	0	0
-37.282468362817994	-53.24488287878448	0	0
-24.782468362817994	-31.594247784173504	0	0
5.6651232785977781	-64.752655375963457	0	0
5.6651232785977808	-39.752655375963464	0	0
-5.665123278597787	-64.752655375963457	0	0
-5.6651232785977834	-39.752655375963464	0	0
37.282468362818008	-53.244882878784466	0	0
24.782468362818008	-31.594247784173497	0	0
27.470187013145477	-58.910006157382249	0	0
14.970187013145473	-37.25937106277128	0	0
58.910006157382242	-27.470187013145487	0	0
37.25937106277128	-14.970187013145482	0	0
53.244882878784452	-37.282468362818022	0	0
31.59424778417349	-24.782468362818012	0	0
64.752655375963457	5.6651232785977736	0	0
39.752655375963464	5.6651232785977781	0	0
64.752655375963457	-5.6651232785977914	0	0
39.752655375963464	-5.665123278597787	0	0
53.244882878784466	37.282468362818008	0	0
31.594247784173497	24.782468362818008	0	0
58.910006157382249	27.470187013145477	0	0
37.25937106277128	14.970187013145473	0	0
27.470187013145487	58.910006157382242	0	0
14.970187013145482	37.25937106277128	0	0
37.282468362818022	53.244882878784452	0	0
24.782468362818012	31.59424778417349	0	0
-5.1592771838908904	38.84053734518001	0	1
2.60111472087788	39.095264221275841	0	1
-38.533850467051863	7.0956219252031492	0	1
-36.378017140855043	14.554908148875199	0	1
-35.345241810025534	-16.909150295427747	0	1
-37.985594446995307	-9.6072939390309084	0	1
-18.655952122153245	-34.455201824085528	0	1
-25.083965757252589	-30.09983628213817	0	1
5.1592771838908904	-38.84053734518001	0	1
-2.60111472087788	-39.095264221275841	0	1
27.00383796307046	-28.390107741725366	0	1
20.875273730234472	-33.157630027043822	0	1
38.533850467051927	-7.0956219252031794	0	1
36.378017140855057	-14.554908148875217	0	1
35.345241810025534	16.909150295427747	0	1
37.985594446995307	9.6072939390309084	0	1
18.655952122153245	34.455201824085528	0	1
25.083965757252589	30.09983628213817	0	1
-6.2999999999999998	58.700000000000003	0	0
-11.299999999999999	58.700000000000003	0	0
6.2999999999999998	58.700000000000003	0	0
11.299999999999999	58.700000000000003	0	0
6.2999999999999998	48.700000000000003	0	0
11.299999999999999	48.700000000000003	0	0
-6.2999999999999998	48.700000000000003	0	0
-11.299999999999999	48.700000000000003	0	0
-34.805960043841957	47.685691202146558	0	0
-39.136087062764148	45.185691202146558	0	0
-23.894039956158032	53.98569120214654	0	0
-19.563912937235841	56.48569120214654	0	0
-18.894039956158032	45.325437164302173	0	0
-14.563912937235841	47.825437164302159	0	0
-29.80596004384196	39.025437164302168	0	0
-34.136087062764148	36.525437164302168	0	0
-53.985691202146555	23.894039956158043	0	0
-56.485691202146555	19.563912937235848	0	0
-47.685691202146543	34.805960043841971	0	0
-45.185691202146543	39.136087062764162	0	0
-39.025437164302154	29.805960043841967	0	0
-36.525437164302154	34.136087062764162	0	0
-45.325437164302159	18.894039956158043	0	0
-47.825437164302159	14.56391293723585	0	0
-58.700000000000003	-6.2999999999999972	0	0
-58.700000000000003	-11.299999999999994	0	0
-58.700000000000003	6.3000000000000034	0	0
-58.700000000000003	11.300000000000004	0	0
-48.700000000000003	6.3000000000000034	0	0
-48.700000000000003	11.300000000000001	0	0
-48.700000000000003	-6.2999999999999972	0	0
-48.700000000000003	-11.299999999999997	0	0
-47.685691202146558	-34.805960043841949	0	0
-45.185691202146558	-39.13608706276414	0	0
-53.98569120214654	-23.894039956158025	0	0
-56.48569120214654	-19.563912937235834	0	0
-45.325437164302159	-18.894039956158029	0	0
-47.825437164302159	-14.563912937235838	0	0
-39.025437164302168	-29.805960043841957	0	0
-36.525437164302168	-34.136087062764148	0	0
-23.894039956158032	-53.98569120214654	0	0
-19.563912937235841	-56.48569120214654	0	0
-34.805960043841957	-47.685691202146558	0	0
-39.136087062764148	-45.185691202146558	0	0
-29.80596004384196	-39.025437164302168	0	0
-34.136087062764148	-36.525437164302168	0	0
-18.894039956158032	-45.325437164302173	0	0
-14.563912937235841	-47.825437164302159	0	0
6.2999999999999936	-58.700000000000003	0	0
11.299999999999992	-58.700000000000003	0	0
-6.3000000000000069	-58.700000000000003	0	0
-11.300000000000006	-58.700000000000003	0	0
-6.300000000000006	-48.700000000000003	0	0
-11.300000000000006	-48.700000000000003	0	0
6.2999999999999945	-48.700000000000003	0	0
11.299999999999992	-48.700000000000003	0	0
34.805960043841971	-47.685691202146543	0	0
39.136087062764162	-45.185691202146543	0	0
23.894039956158043	-53.985691202146555	0	0
19.563912937235848	-56.485691202146555	0	0
18.894039956158043	-45.325437164302159	0	0
14.56391293723585	-47.825437164302159	0	0
29.805960043841967	-39.025437164302154	0	0
34.136087062764162	-36.525437164302154	0	0
53.985691202146533	-23.894039956158064	0	0
56.485691202146533	-19.563912937235873	0	0
47.685691202146529	-34.805960043841992	0	0
45.185691202146529	-39.136087062764176	0	0
39.025437164302147	-29.805960043841985	0	0
36.525437164302147	-34.136087062764176	0	0
45.325437164302151	-18.894039956158061	0	0
47.825437164302151	-14.56391293723587	0	0
58.700000000000003	6.2999999999999892	0	0
58.700000000000003	11.299999999999988	0	0
58.700000000000003	-6.3000000000000114	0	0
58.700000000000003	-11.30000000000001	0	0
48.700000000000003	-6.3000000000000087	0	0
48.700000000000003	-11.300000000000008	0	0
48.700000000000003	6.2999999999999909	0	0
48.700000000000003	11.29999999999999	0	0
47.685691202146543	34.805960043841971	0	0
45.185691202146543	39.136087062764162	0	0
53.985691202146555	23.894039956158043	0	0
56.485691202146555	19.563912937235848	0	0
45.325437164302159	18.894039956158043	0	0
47.825437164302159	14.56391293723585	0	0
39.025437164302154	29.805960043841967	0	0
36.525437164302154	34.136087062764162	0	0
23.894039956158064	53.985691202146533	0	0
19.563912937235873	56.485691202146533	0	0
34.805960043841992	47.685691202146529	0	0
39.136087062764176	45.185691202146529	0	0
29.805960043841985	39.025437164302147	0	0
34.136087062764176	36.525437164302147	0	0
18.894039956158061	45.325437164302151	0	0
14.56391293723587	47.825437164302151	0	0
90	0	0	0
-90	0	0	0
-23.470785902930267	31.146784891845044	0	1
-27.463963453166883	28.137709776084854	0	1
-19.477608352693768	34.155860007605497	0	1
-25.658518383710778	25.741803245942972	0	1
-17.672163283237655	31.759953477463554	0	1
-38.757744006172899	6.6209727043717868	0	1
-37.295885482559143	11.402496484187097	0	1
-35.83402695894555	16.184020264002402	0	1
-35.888829738283803	5.7438575902035405	0	1
-32.965112691056341	15.30690514983409	0	1
-35.247383676088361	-17.424750901825973	0	1
-36.875224448374119	-12.697158023829271	0	1
-38.503065220660083	-7.969565145832604	0	1
-35.666509493862037	-6.9928606824611563	0	1
-18.273720796246305	-34.814811909026595	0	1
-22.369481017691278	-31.946929727271247	0	1
-26.465241239136454	-29.079047545516083	0	1
-16.552991487193196	-32.357355776159693	0	1
-24.744511930083391	-26.621591412649138	0	1
5.6798823268360437	-38.906798078913724	0	1
0.68064385105397707	-38.994060111100019	0	1
-4.3185946247281066	-39.081322143286606	0	1
5.6275251075242041	-35.907254993444568	0	1
-4.3709518440398947	-36.081779057817336	0	1
27.463963453166869	-28.137709776084904	0	1
23.470785902930253	-31.14678489184508	0	1
19.477608352693785	-34.155860007605526	0	1
25.658518383710735	-25.741803245942982	0	1
17.672163283237644	-31.759953477463604	0	1
38.757744006172899	-6.6209727043717868	0	1
37.295885482559122	-11.402496484187067	0	1
35.834026958945515	-16.184020264002374	0	1
35.888829738283803	-5.7438575902035405	0	1
32.96511269105639	-15.306905149834195	0	1
35.247383676088361	17.424750901825973	0	1
36.875224448374119	12.697158023829271	0	1
38.503065220660083	7.969565145832604	0	1
32.410827949290486	16.448046438454558	0	1
35.66650949386208	6.9928606824611457	0	1
18.273720796246359	34.814811909026623	0	1
22.36948101769141	31.946929727271296	0	1
26.465241239136454	29.079047545516083	0	1
16.552991487193196	32.357355776159693	0	1
24.744511930083391	26.621591412649138	0	1
-5.6798823268360694	38.906798078913681	0	1
-0.68064385105397707	38.994060111100019	0	1
4.3185946247281333	39.081322143286634	0	1
-5.6275251075242183	35.907254993444539	0	1
4.370951844039916	36.081779057817336	0	1
-32.410827949290486	-16.448046438454558	0	1
[NumSegments] = 170
2	4	-1	0	0	0
3	5	-1	0	0	0
6	7	-1	0	0	0
8	9	-1	0	0	0
10	11	-1	0	0	0
12	13	-1	0	0	0
14	15	-1	0	0	0
16	17	-1	0	0	0
18	19	-1	0	0	0
20	21	-1	0	0	0
22	23	-1	0	0	0
24	25	-1	0	0	0
26	27	-1	0	0	0
28	29	-1	0	0	0
30	31	-1	0	0	0
32	33	-1	0	0	0
34	35	-1	0	0	0
36	37	-1	0	0	0
38	39	-1	0	0	0
40	41	-1	0	0	0
42	43	-1	0	0	0
44	45	-1	0	0	0
46	47	-1	0	0	0
48	49	-1	0	0	0
69	75	-1	0	0	0
68	74	-1	0	0	0
69	68	-1	0	0	0
75	74	-1	0	0	0
70	72	-1	0	0	0
71	73	-1	0	0	0
70	71	-1	0	0	0
72	73	-1	0	0	0
163	157	-1	0	0	0
156	162	-1	0	0	0
157	156	-1	0	0	0
163	162	-1	0	0	0
160	161	-1	0	0	0
158	159	-1	0	0	0
159	161	-1	0	0	0
158	160	-1	0	0	0
155	149	-1	0	0	0
154	148	-1	0	0	0
152	150	-1	0	0	0
153	151	-1	0	0	0
147	141	-1	0	0	0
146	140	-1	0	0	0
147	146	-1	0	0	0
141	140	-1	0	0	0
153	152	-1	0	0	0
151	150	-1	0	0	0
154	155	-1	0	0	0
149	148	-1	0	0	0
78	79	-1	0	0	0
81	79	-1	0	0	0
78	80	-1	0	0	0
80	81	-1	0	0	0
76	82	-1	0	0	0
77	83	-1	0	0	0
77	76	-1	0	0	0
83	82	-1	0	0	0
89	87	-1	0	0	0
88	86	-1	0	0	0
86	87	-1	0	0	0
88	89	-1	0	0	0
84	85	-1	0	0	0
90	91	-1	0	0	0
85	91	-1	0	0	0
84	90	-1	0	0	0
97	96	-1	0	0	0
95	94	-1	0	0	0
95	97	-1	0	0	0
94	96	-1	0	0	0
92	98	-1	0	0	0
93	99	-1	0	0	0
92	93	-1	0	0	0
98	99	-1	0	0	0
103	105	-1	0	0	0
102	104	-1	0	0	0
105	104	-1	0	0	0
103	102	-1	0	0	0
100	101	-1	0	0	0
101	107	-1	0	0	0
107	106	-1	0	0	0
100	106	-1	0	0	0
111	113	-1	0	0	0
110	112	-1	0	0	0
113	112	-1	0	0	0
111	110	-1	0	0	0
108	114	-1	0	0	0
115	114	-1	0	0	0
109	115	-1	0	0	0
108	109	-1	0	0	0
121	119	-1	0	0	0
120	118	-1	0	0	0
121	120	-1	0	0	0
119	118	-1	0	0	0
122	116	-1	0	0	0
123	117	-1	0	0	0
122	123	-1	0	0	0
116	117	-1	0	0	0
129	127	-1	0	0	0
128	126	-1	0	0	0
126	127	-1	0	0	0
129	128	-1	0	0	0
130	124	-1	0	0	0
131	125	-1	0	0	0
130	131	-1	0	0	0
124	125	-1	0	0	0
137	135	-1	0	0	0
136	134	-1	0	0	0
135	134	-1	0	0	0
136	137	-1	0	0	0
138	139	-1	0	0	0
139	133	-1	0	0	0
132	138	-1	0	0	0
133	132	-1	0	0	0
145	144	-1	0	0	0
143	142	-1	0	0	0
144	142	-1	0	0	0
145	143	-1	0	0	0
167	166	-1	0	0	1
166	168	-1	0	0	1
167	169	-1	0	0	1
168	170	-1	0	0	1
170	169	-1	0	0	1
180	181	-1	0	0	1
181	182	-1	0	0	1
180	183	-1	0	0	1
182	184	-1	0	0	1
184	183	-1	0	0	1
185	186	-1	0	0	1
186	187	-1	0	0	1
185	188	-1	0	0	1
187	189	-1	0	0	1
189	188	-1	0	0	1
190	191	-1	0	0	1
191	192	-1	0	0	1
190	193	-1	0	0	1
192	194	-1	0	0	1
194	193	-1	0	0	1
195	196	-1	0	0	1
196	197	-1	0	0	1
195	198	-1	0	0	1
197	199	-1	0	0	1
199	198	-1	0	0	1
200	201	-1	0	0	1
201	202	-1	0	0	1
200	203	-1	0	0	1
202	204	-1	0	0	1
204	203	-1	0	0	1
205	206	-1	0	0	1
206	207	-1	0	0	1
205	208	-1	0	0	1
207	209	-1	0	0	1
209	208	-1	0	0	1
210	211	-1	0	0	1
211	212	-1	0	0	1
210	213	-1	0	0	1
212	214	-1	0	0	1
214	213	-1	0	0	1
171	172	-1	0	0	1
172	173	-1	0	0	1
171	174	-1	0	0	1
173	175	-1	0	0	1
175	174	-1	0	0	1
176	177	-1	0	0	1
177	178	-1	0	0	1
176	215	-1	0	0	1
178	179	-1	0	0	1
179	215	-1	0	0	1
[NumArcSegments] = 38
0	1	180	1	0	0	0	1
1	0	180	1	0	0	0	1
14	20	19.999999999999996	1	0	0	0	1
18	24	20.000000000000046	1	0	0	0	1
22	28	20.000000000000025	1	0	0	0	1
26	32	20.000000000000046	1	0	0	0	1
30	36	20.000000000000007	1	0	0	0	1
34	40	20.000000000000053	1	0	0	0	1
38	44	20.000000000000028	1	0	0	0	1
42	48	19.999999999999972	1	0	0	0	1
46	3	20.000000000000032	1	0	0	0	1
2	8	19.999999999999989	1	0	0	0	1
6	12	19.999999999999989	1	0	0	0	1
10	16	20	1	0	0	0	1
13	11	30	1	0	0	0	1
9	7	30	1	0	0	0	1
5	4	30	1	0	0	0	1
49	47	30	1	0	0	0	1
45	43	30	1	0	0	0	1
41	39	30	1	0	0	0	1
37	35	30	1	0	0	0	1
33	31	30	1	0	0	0	1
29	27	30	1	0	0	0	1
25	23	30	1	0	0	0	1
21	19	30	1	0	0	0	1
17	15	30	1	0	0	0	1
165	164	180	1	1	0	0	1
164	165	180	1	1	0	0	1
176	182	33	1	0	0	1	1
171	178	33	1	0	0	1	1
167	173	33	1	0	0	1	1
210	168	33	1	0	0	1	1
205	212	33	1	0	0	1	1
200	207	33	1	0	0	1	1
195	202	33	1	0	0	1	1
180	187	33	1	0	0	1	1
185	192	33	1	0	0	1	1
190	197	33	1	0	0	1	1
[NumHoles] = 0
[NumBlockLabels] = 38
-82.5	32	1	-1	0	0	0	1	0
-60	34.5	5	-1	0	0	0	1	0
0.14202911805139062	13.962174892531424	5	-1	0	0	1	1	0
-33.149999999999999	29.800000000000001	1	-1	0	0	0	1	0
-18.5	51.5	3	-1	3	0	0	200	0
-7.5	54.5	3	-1	2	0	0	200	0
7	54	3	-1	2	0	0	200	0
19.5	51.5	3	-1	2	0	0	200	0
34.5	43.5	3	-1	2	0	0	-200	0
41.5	34.5	3	-1	1	0	0	200	0
51.5	18.5	3	-1	1	0	0	-200	0
55.5	8.5	3	-1	1	0	0	-200	0
55	-8.5	3	-1	1	0	0	200	0
51.5	-17	3	-1	3	0	0	200	0
43.5	-35.5	3	-1	3	0	0	-200	0
35	-40	3	-1	3	0	0	-200	0
19.5	-51.5	3	-1	3	0	0	-200	0
10	-54	3	-1	2	0	0	200	0
-8	-54	3	-1	2	0	0	-200	0
-20.5	-52	3	-1	2	0	0	-200	0
-34.5	-43	3	-1	2	0	0	200	0
-44	-35.5	3	-1	1	0	0	-200	0
-51	-20	3	-1	1	0	0	200	0
-54	-9	3	-1	1	0	0	200	0
-54	7.5	3	-1	1	0	0	-200	0
-52.5	19.5	3	-1	3	0	0	200	0
-43	35	3	-1	3	0	0	-200	0
-34.5	43.5	3	-1	3	0	0	-200	0
1.2433588623290153	-37.879599506060515	2	-1	0	1711.8800000000001	1	1	0
36.409858963456095	-10.522935439378342	2	-1	0	1783.8800000000001	1	1	0
21.259171502676757	31.376067743103974	2	-1	0	1855.8800000000001	1	1	0
-23.270968402138521	29.91441173793574	2	-1	0	1927.8800000000001	1	1	0
-35.641420926323214	-12.887944535600955	2	-1	0	1999.8800000000001	1	1	0
-1.2433588623290153	37.879599506060515	2	-1	0	1711.8800000000001	1	1	0
-36.409858963456095	10.522935439378342	2	-1	0	1783.8800000000001	1	1	0
-21.259171502676757	-31.376067743103974	2	-1	0	1855.8800000000001	1	1	0
23.270968402138521	-29.91441173793574	2	-1	0	1927.8800000000001	1	1	0
35.641420926323214	12.887944535600955	2	-1	0	1999.8800000000001	1	1	0
