[Format]      =  4.0
[Frequency]   =  0
[Precision]   =  1e-008
[MinAngle]    =  30
[DoSmartMesh] =  1
[Depth]       =  1
[LengthUnits] =  inches
[ProblemType] =  planar
[Coordinates] =  cartesian
[ACSolver]    =  0
[PrevType]    =  0
[PrevSoln]    =  ""
[Comment]     =  "Add comments here."
[PointProps]   = 0
[BdryProps]   = 0
[BlockProps]  = 4
  <BeginBlock>
    <BlockName> = "Air"
    <Mu_x> = 1
    <Mu_y> = 1
    <H_c> = 0
    <H_cAngle> = 0
    <J_re> = 0
    <J_im> = 0
    <Sigma> = 0
    <d_lam> = 0
    <Phi_h> = 0
    <Phi_hx> = 0
    <Phi_hy> = 0
    <LamType> = 0
    <LamFill> = 1
    <NStrands> = 0
    <WireD> = 0
    <BHPoints> = 0
  <EndBlock>
  <BeginBlock>
    <BlockName> = "Pure Iron"
    <Mu_x> = 14872
    <Mu_y> = 14872
    <H_c> = 0
    <H_cAngle> = 0
    <J_re> = 0
    <J_im> = 0
    <Sigma> = 10.44
    <d_lam> = 0
    <Phi_h> = 0
    <Phi_hx> = 0
    <Phi_hy> = 0
    <LamType> = 0
    <LamFill> = 1
    <NStrands> = 0
    <WireD> = 0
    <BHPoints> = 21
      0	0
      0.22706499999999999	13.898400000000001
      0.45412999999999998	27.796700000000001
      0.68119499999999999	42.397399999999998
      0.90825999999999996	61.415700000000001
      1.13533	82.382400000000004
      1.36239	144.66900000000001
      1.58935	897.75999999999999
      1.81236	4581.7399999999998
      2.01004	17736.200000000001
      2.1331600000000002	41339.300000000003
      2.1999900000000001	68321.800000000003
      2.2547899999999998	95685.5
      2.2999299999999998	123355
      2.3425099999999999	151083
      2.3787600000000002	178954
      2.4150100000000001	206825
      2.45126	234696
      2.4874999999999998	262568
      2.5237500000000002	290439
      2.5600000000000001	318310
  <EndBlock>
  <BeginBlock>
    <BlockName> = "N35"
    <Mu_x> = 1.05
    <Mu_y> = 1.05
    <H_c> = 905659
    <H_cAngle> = 0
    <J_re> = 0
    <J_im> = 0
    <Sigma> = 0.66700000000000004
    <d_lam> = 0
    <Phi_h> = 0
    <Phi_hx> = 0
    <Phi_hy> = 0
    <LamType> = 0
    <LamFill> = 1
    <NStrands> = 0
    <WireD> = 0
    <BHPoints> = 0
  <EndBlock>
  <BeginBlock>
    <BlockName> = "22 AWG"
    <Mu_x> = 1
    <Mu_y> = 1
    <H_c> = 0
    <H_cAngle> = 0
    <J_re> = 0
    <J_im> = 0
    <Sigma> = 58
    <d_lam> = 0
    <Phi_h> = 0
    <Phi_hx> = 0
    <Phi_hy> = 0
    <LamType> = 3
    <LamFill> = 1
    <NStrands> = 1
    <WireD> = 0.64399170069399603
    <BHPoints> = 0
  <EndBlock>
[CircuitProps]  = 3
  <BeginCircuit>
    <CircuitName> = "A"
    <TotalAmps_re> = 0
    <TotalAmps_im> = 0
    <CircuitType> = 1
  <EndCircuit>
  <BeginCircuit>
    <CircuitName> = "B"
    <TotalAmps_re> = 0
    <TotalAmps_im> = 0
    <CircuitType> = 1
  <EndCircuit>
  <BeginCircuit>
    <CircuitName> = "C"
    <TotalAmps_re> = 0
    <TotalAmps_im> = 0
    <CircuitType> = 1
  <EndCircuit>
[NumPoints] = 114
0.5	-0.5	0	0
2	-0.5	0	0
2	0.5	0	0
0.5	0.5	0	0
2.5	-0.5	0	0
2.5	0.5	0	0
0.50000000000000011	2	0	0
-0.49999999999999989	2	0	0
-0.49999999999999994	0.5	0	0
0.50000000000000011	2.5	0	0
-0.49999999999999983	2.5	0	0
-2	0.50000000000000022	0	0
-2	-0.49999999999999978	0	0
-0.50000000000000011	-0.49999999999999994	0	0
-2.5	0.50000000000000033	0	0
-2.5	-0.49999999999999967	0	0
-0.50000000000000033	-2	0	0
0.49999999999999961	-2	0	0
-0.50000000000000044	-2.5	0	0
0.49999999999999956	-2.5	0	0
5	0	0	0
-5	0	0	0
6	0	0	0
-6	0	0	0
7	0	0	0
-7	0	0	0
5	0.5	0	0
2.6495097567963923	0.5	0	0
4.9749371855330997	0.5	0	0
2.6495097567963923	-0.5	0	0
5	-0.5	0	0
4.9749371855330997	-0.5	0	0
3	0.59999999999999998	0	0
4.5	0.59999999999999998	0	0
4.5	1.1000000000000001	0	0
3	1.1000000000000001	0	0
3	-1.1000000000000001	0	0
4.5	-1.1000000000000001	0	0
4.5	-0.59999999999999998	0	0
3	-0.59999999999999998	0	0
2.5000000000000004	4.3301270189221928	0	0
2.0669872981077813	4.5801270189221928	0	0
0.89174217650597709	2.5445427569604053	0	0
2.0544558908743311	4.5584219849035215	0	0
1.7577675802904156	2.0445427569604053	0	0
2.9330127018922196	4.0801270189221928	0	0
2.9204812946587695	4.0584219849035215	0	0
0.98038475772933731	2.8980762113533158	0	0
1.7303847577293374	4.1971143170299738	0	0
1.2973720558371178	4.4471143170299738	0	0
0.5473720558371179	3.1480762113533163	0	0
2.4526279441628831	2.0480762113533157	0	0
3.2026279441628831	3.3471143170299733	0	0
2.7696152422706635	3.5971143170299733	0	0
2.0196152422706635	2.2980762113533162	0	0
-2.4999999999999991	4.3301270189221936	0	0
-2.9330127018922183	4.0801270189221936	0	0
-1.7577675802904149	2.0445427569604058	0	0
-2.9204812946587682	4.0584219849035215	0	0
-0.89174217650597609	2.5445427569604058	0	0
-2.0669872981077799	4.5801270189221936	0	0
-2.0544558908743298	4.5584219849035215	0	0
-2.0196152422706626	2.2980762113533162	0	0
-2.7696152422706621	3.5971143170299742	0	0
-3.2026279441628818	3.3471143170299742	0	0
-2.4526279441628818	2.0480762113533162	0	0
-0.54737205583711668	3.1480762113533158	0	0
-1.2973720558371165	4.4471143170299738	0	0
-1.7303847577293359	4.1971143170299738	0	0
-0.98038475772933609	2.8980762113533158	0	0
-5	-0.49999999999999939	0	0
-2.6495097567963923	-0.49999999999999967	0	0
-4.9749371855330997	-0.49999999999999939	0	0
-2.6495097567963923	0.50000000000000033	0	0
-5	0.50000000000000067	0	0
-4.9749371855330997	0.50000000000000056	0	0
-3	-0.59999999999999964	0	0
-4.5	-0.59999999999999942	0	0
-4.5	-1.0999999999999996	0	0
-3	-1.0999999999999996	0	0
-3	1.1000000000000005	0	0
-4.5	1.1000000000000005	0	0
-4.5	0.60000000000000053	0	0
-3	0.60000000000000031	0	0
-2.5000000000000022	-4.3301270189221919	0	0
-2.066987298107783	-4.5801270189221919	0	0
-0.89174217650597809	-2.5445427569604053	0	0
-2.0544558908743329	-4.5584219849035197	0	0
-1.7577675802904165	-2.0445427569604044	0	0
-2.9330127018922214	-4.0801270189221919	0	0
-2.9204812946587713	-4.0584219849035197	0	0
-0.98038475772933831	-2.8980762113533154	0	0
-1.7303847577293388	-4.197114317029973	0	0
-1.2973720558371196	-4.447114317029973	0	0
-0.54737205583711901	-3.1480762113533158	0	0
-2.4526279441628835	-2.0480762113533144	0	0
-3.202627944162884	-3.3471143170299724	0	0
-2.7696152422706648	-3.5971143170299724	0	0
-2.0196152422706644	-2.2980762113533149	0	0
2.5000000000000004	-4.3301270189221928	0	0
2.9330127018922196	-4.0801270189221928	0	0
1.7577675802904156	-2.0445427569604053	0	0
2.9204812946587695	-4.0584219849035215	0	0
0.89174217650597709	-2.5445427569604053	0	0
2.0669872981077813	-4.5801270189221928	0	0
2.0544558908743311	-4.5584219849035215	0	0
2.0196152422706635	-2.2980762113533162	0	0
2.7696152422706635	-3.5971143170299733	0	0
3.2026279441628831	-3.3471143170299733	0	0
2.4526279441628831	-2.0480762113533157	0	0
0.5473720558371179	-3.1480762113533163	0	0
1.2973720558371178	-4.4471143170299738	0	0
1.7303847577293374	-4.1971143170299738	0	0
0.98038475772933731	-2.8980762113533158	0	0
[NumSegments] = 106
0	1	-1	0	0	0
1	2	-1	0	0	0
2	3	-1	0	0	0
3	0	-1	0	0	0
1	4	-1	0	0	0
4	5	-1	0	0	0
5	2	-1	0	0	0
3	6	-1	0	0	0
6	7	-1	0	0	0
7	8	-1	0	0	0
8	3	-1	0	0	0
6	9	-1	0	0	0
9	10	-1	0	0	0
10	7	-1	0	0	0
8	11	-1	0	0	0
11	12	-1	0	0	0
12	13	-1	0	0	0
13	8	-1	0	0	0
11	14	-1	0	0	0
14	15	-1	0	0	0
15	12	-1	0	0	0
13	16	-1	0	0	0
16	17	-1	0	0	0
17	0	-1	0	0	0
0	13	-1	0	0	0
16	18	-1	0	0	0
18	19	-1	0	0	0
19	17	-1	0	0	0
26	28	-1	0	0	0
28	27	-1	0	0	0
27	29	-1	0	0	0
29	31	-1	0	0	0
31	30	-1	0	0	0
32	33	-1	0	0	0
33	34	-1	0	0	0
34	35	-1	0	0	0
35	32	-1	0	0	0
36	37	-1	0	0	0
37	38	-1	0	0	0
38	39	-1	0	0	0
39	36	-1	0	0	0
41	43	-1	0	0	0
43	42	-1	0	0	0
42	44	-1	0	0	0
44	46	-1	0	0	0
46	45	-1	0	0	0
47	48	-1	0	0	0
48	49	-1	0	0	0
49	50	-1	0	0	0
50	47	-1	0	0	0
51	52	-1	0	0	0
52	53	-1	0	0	0
53	54	-1	0	0	0
54	51	-1	0	0	0
56	58	-1	0	0	0
58	57	-1	0	0	0
57	59	-1	0	0	0
59	61	-1	0	0	0
61	60	-1	0	0	0
62	63	-1	0	0	0
63	64	-1	0	0	0
64	65	-1	0	0	0
65	62	-1	0	0	0
66	67	-1	0	0	0
67	68	-1	0	0	0
68	69	-1	0	0	0
69	66	-1	0	0	0
70	72	-1	0	0	0
72	71	-1	0	0	0
71	73	-1	0	0	0
73	75	-1	0	0	0
75	74	-1	0	0	0
76	77	-1	0	0	0
77	78	-1	0	0	0
78	79	-1	0	0	0
79	76	-1	0	0	0
80	81	-1	0	0	0
81	82	-1	0	0	0
82	83	-1	0	0	0
83	80	-1	0	0	0
85	87	-1	0	0	0
87	86	-1	0	0	0
86	88	-1	0	0	0
88	90	-1	0	0	0
90	89	-1	0	0	0
91	92	-1	0	0	0
92	93	-1	0	0	0
93	94	-1	0	0	0
94	91	-1	0	0	0
95	96	-1	0	0	0
96	97	-1	0	0	0
97	98	-1	0	0	0
98	95	-1	0	0	0
100	102	-1	0	0	0
102	101	-1	0	0	0
101	103	-1	0	0	0
103	105	-1	0	0	0
105	104	-1	0	0	0
106	107	-1	0	0	0
107	108	-1	0	0	0
108	109	-1	0	0	0
109	106	-1	0	0	0
110	111	-1	0	0	0
111	112	-1	0	0	0
112	113	-1	0	0	0
113	110	-1	0	0	0
[NumArcSegments] = 22
20	28	5.7391704772667866	1	0	0	0	1
21	72	5.7391704772667804	1	0	0	0	1
72	90	48.521659045466436	1	0	0	0	1
90	84	5.7391704772667902	1	0	0	0	1
84	87	5.7391704772667804	1	0	0	0	1
87	105	48.521659045466514	1	0	0	0	1
105	99	5.7391704772667929	1	0	0	0	1
99	102	5.7391704772667929	1	0	0	0	1
102	31	48.521659045466478	1	0	0	0	1
22	23	180	1	0	0	0	1
23	22	180	1	0	0	0	1
24	25	180	1	0	0	0	1
25	24	180	1	0	0	0	1
28	46	48.521659045466471	1	0	0	0	1
46	40	5.7391704772667849	1	0	0	0	1
40	43	5.7391704772667991	1	0	0	0	1
43	61	48.521659045466514	1	0	0	0	1
61	55	5.7391704772667973	1	0	0	0	1
55	58	5.7391704772667964	1	0	0	0	1
58	75	48.521659045466521	1	0	0	0	1
75	21	5.7391704772668035	1	0	0	0	1
31	20	5.7391704772667858	1	0	0	0	1
[NumHoles] = 0
[NumBlockLabels] = 30
0.59999999999999998	0.59999999999999998	1	-1	0	0	0	1	0
0	0	2	-1	0	0	0	1	0
1	0	2	-1	0	0	0	1	0
2.25	0	3	-1	0	0	0	1	0
6.123233995736766e-017	1	2	-1	0	0	0	1	0
1.3777276490407724e-016	2.25	3	-1	0	270	0	1	0
-1	1.2246467991473532e-016	2	-1	0	0	0	1	0
-2.25	2.7554552980815448e-016	3	-1	0	180	0	1	0
-1.8369701987210297e-016	-1	2	-1	0	0	0	1	0
-4.1331829471223167e-016	-2.25	3	-1	0	450	0	1	0
5.5	0	2	-1	0	0	0	1	0
6.5	0	1	-1	0	0	0	1	0
2.7495097567963924	0	2	-1	0	0	0	1	0
3.75	0.84999999999999998	4	-1	1	0	0	100	0
3.75	-0.84999999999999998	4	-1	1	0	0	-100	0
1.3747548783981964	2.3811452973388492	2	-1	0	0	0	1	0
1.1388784067832276	3.6725952641916448	4	-1	2	0	0	100	0
2.6111215932167733	2.8225952641916443	4	-1	2	0	0	-100	0
-1.3747548783981955	2.3811452973388496	2	-1	0	0	0	1	0
-2.611121593216772	2.8225952641916452	4	-1	3	0	0	100	0
-1.1388784067832263	3.6725952641916448	4	-1	3	0	0	-100	0
-2.7495097567963924	3.3671783228851194e-016	2	-1	0	0	0	1	0
-3.75	-0.84999999999999953	4	-1	1	0	0	100	0
-3.75	0.85000000000000042	4	-1	1	0	0	-100	0
-1.3747548783981973	-2.3811452973388487	2	-1	0	0	0	1	0
-1.1388784067832292	-3.6725952641916444	4	-1	2	0	0	100	0
-2.6111215932167742	-2.8225952641916439	4	-1	2	0	0	-100	0
1.3747548783981964	-2.3811452973388492	2	-1	0	0	0	1	0
2.6111215932167733	-2.8225952641916443	4	-1	3	0	0	100	0
1.1388784067832276	-3.6725952641916448	4	-1	3	0	0	-100	0
