[Format]      =  4.0
[Frequency]   =  0
[Precision]   =  1e-008
[MinAngle]    =  30
[DoSmartMesh] =  1
[Depth]       =  30
[LengthUnits] =  millimeters
[ProblemType] =  planar
[Coordinates] =  cartesian
[ACSolver]    =  0
[PrevType]    =  0
[PrevSoln]    =  ""
[Comment]     =  "Add comments here."
[PointProps]   = 0
[BdryProps]   = 1
  <BeginBdry>
    <BdryName> = "Limite"
    <BdryType> = 0
    <A_0> = 0
    <A_1> = 0
    <A_2> = 0
    <Phi> = 0
    <c0> = 0
    <c0i> = 0
    <c1> = 0
    <c1i> = 0
    <Mu_ssd> = 0
    <Sigma_ssd> = 0
    <innerangle> = 0
    <outerangle> = 0
  <EndBdry>
[BlockProps]  = 6
  <BeginBlock>
    <BlockName> = "Air"
    <Mu_x> = 1
    <Mu_y> = 1
    <H_c> = 0
    <H_cAngle> = 0
    <J_re> = 0
    <J_im> = 0
    <Sigma> = 0
    <d_lam> = 0
    <Phi_h> = 0
    <Phi_hx> = 0
    <Phi_hy> = 0
    <LamType> = 0
    <LamFill> = 1
    <NStrands> = 0
    <WireD> = 0
    <BHPoints> = 0
  <EndBlock>
  <BeginBlock>
    <BlockName> = "N35"
    <Mu_x> = 1.05
    <Mu_y> = 1.05
    <H_c> = 905659
    <H_cAngle> = 0
    <J_re> = 0
    <J_im> = 0
    <Sigma> = 0.66700000000000004
    <d_lam> = 0
    <Phi_h> = 0
    <Phi_hx> = 0
    <Phi_hy> = 0
    <LamType> = 0
    <LamFill> = 1
    <NStrands> = 0
    <WireD> = 0
    <BHPoints> = 0
  <EndBlock>
  <BeginBlock>
    <BlockName> = "10 AWG"
    <Mu_x> = 1
    <Mu_y> = 1
    <H_c> = 0
    <H_cAngle> = 0
    <J_re> = 0
    <J_im> = 0
    <Sigma> = 58
    <d_lam> = 0
    <Phi_h> = 0
    <Phi_hx> = 0
    <Phi_hy> = 0
    <LamType> = 3
    <LamFill> = 1
    <NStrands> = 1
    <WireD> = 2.5887801724742099
    <BHPoints> = 0
  <EndBlock>
  <BeginBlock>
    <BlockName> = "1010 Steel"
    <Mu_x> = 902.60000000000002
    <Mu_y> = 902.60000000000002
    <H_c> = 0
    <H_cAngle> = 0
    <J_re> = 0
    <J_im> = 0
    <Sigma> = 5.7999999999999998
    <d_lam> = 0
    <Phi_h> = 20
    <Phi_hx> = 0
    <Phi_hy> = 0
    <LamType> = 0
    <LamFill> = 1
    <NStrands> = 0
    <WireD> = 0
    <BHPoints> = 38
      0	0
      0.21186199999999999	79.577472
      0.26566499999999998	100.182101
      0.33237699999999998	126.121793
      0.414377	158.77793
      0.51381100000000002	199.88957099999999
      0.63189899999999999	251.646061
      0.76778400000000002	316.80362000000002
      0.917018	398.83212800000001
      1.0703530000000001	502.09990099999999
      1.2142550000000001	632.10632499999997
      1.3346370000000001	795.77471500000001
      1.4229810000000001	1001.821011
      1.480634	1261.2179289999999
      1.5172140000000001	1587.779301
      1.5445150000000001	1998.89571
      1.571296	2516.4606050000002
      1.6020490000000001	3168.036204
      1.638404	3988.3212819999999
      1.68049	5020.9990129999996
      1.727311	6321.0632500000002
      1.776659	7957.747155
      1.8254010000000001	10018.210114
      1.870557	12612.179292999999
      1.910809	15877.793009999999
      1.947222	19988.957103000001
      1.9823280000000001	25164.606051999999
      2.0182519999999999	31680.362036999999
      2.0553979999999998	39883.212823000002
      2.0925449999999999	50209.990126999997
      2.1280950000000001	63210.632496999999
      2.1616119999999999	79577.471546000001
      2.1946439999999998	100182.101136
      2.2303389999999998	126121.79292599999
      2.272386	158777.930096
      2.3242820000000002	199889.57102999999
      2.3893559999999998	251646.06052200001
      2.471238	316803.62037000002
  <EndBlock>
  <BeginBlock>
    <BlockName> = "1020 Steel"
    <Mu_x> = 760
    <Mu_y> = 760
    <H_c> = 0
    <H_cAngle> = 0
    <J_re> = 0
    <J_im> = 0
    <Sigma> = 5.7999999999999998
    <d_lam> = 0
    <Phi_h> = 20
    <Phi_hx> = 0
    <Phi_hy> = 0
    <LamType> = 0
    <LamFill> = 1
    <NStrands> = 0
    <WireD> = 0
    <BHPoints> = 38
      0	0
      0.16625200000000001	79.577472
      0.20872499999999999	100.182101
      0.26163500000000001	126.121793
      0.32714599999999999	158.77793
      0.407495	199.88957099999999
      0.50460400000000005	251.646061
      0.61936599999999997	316.80362000000002
      0.750502	398.83212800000001
      0.89319499999999996	502.09990099999999
      1.0382579999999999	632.10632499999997
      1.173276	795.77471500000001
      1.2867310000000001	1001.821011
      1.3735329999999999	1261.2179289999999
      1.4376580000000001	1587.779301
      1.4891890000000001	1998.89571
      1.5383439999999999	2516.4606050000002
      1.591321	3168.036204
      1.6497230000000001	3988.3212819999999
      1.711927	5020.9990129999996
      1.7747120000000001	6321.0632500000002
      1.8349759999999999	7957.747155
      1.8914420000000001	10018.210114
      1.945262	12612.179292999999
      1.998705	15877.793009999999
      2.0528520000000001	19988.957103000001
      2.1061839999999998	25164.606051999999
      2.1551490000000002	31680.362036999999
      2.1963750000000002	39883.212823000002
      2.2290079999999999	50209.990126999997
      2.2554500000000002	63210.632496999999
      2.2800530000000001	79577.471546000001
      2.3071359999999999	100182.101136
      2.3399749999999999	126121.79292599999
      2.3810440000000002	158777.930096
      2.4327079999999999	199889.57102999999
      2.4977480000000001	251646.06052200001
      2.5796269999999999	316803.62037000002
  <EndBlock>
  <BeginBlock>
    <BlockName> = "Aluminum, 1100"
    <Mu_x> = 1
    <Mu_y> = 1
    <H_c> = 0
    <H_cAngle> = 0
    <J_re> = 0
    <J_im> = 0
    <Sigma> = 34.450000000000003
    <d_lam> = 0
    <Phi_h> = 0
    <Phi_hx> = 0
    <Phi_hy> = 0
    <LamType> = 0
    <LamFill> = 1
    <NStrands> = 0
    <WireD> = 0
    <BHPoints> = 0
  <EndBlock>
[CircuitProps]  = 3
  <BeginCircuit>
    <CircuitName> = "A"
    <TotalAmps_re> = -1.83697019872103e-015
    <TotalAmps_im> = -0
    <CircuitType> = 1
  <EndCircuit>
  <BeginCircuit>
    <CircuitName> = "B"
    <TotalAmps_re> = -1.2990381056766562
    <TotalAmps_im> = -0
    <CircuitType> = 1
  <EndCircuit>
  <BeginCircuit>
    <CircuitName> = "C"
    <TotalAmps_re> = 1.299038105676658
    <TotalAmps_im> = 0
    <CircuitType> = 1
  <EndCircuit>
[NumPoints] = 198
-75	0	0	0
75	0	0	0
-5.6651232785977861	64.752655375963457	0	0
5.665123278597779	64.752655375963457	0	0
-5.6651232785977861	39.752655375963464	0	0
5.665123278597779	39.752655375963464	0	0
-37.282468362817994	53.24488287878448	0	0
-24.782468362818001	31.594247784173501	0	0
-27.470187013145463	58.910006157382256	0	0
-14.970187013145466	37.259371062771287	0	0
-58.910006157382249	27.47018701314547	0	0
-37.259371062771287	14.970187013145466	0	0
-53.244882878784466	37.282468362818008	0	0
-31.594247784173501	24.782468362818001	0	0
-64.752655375963457	-5.6651232785977808	0	0
-39.752655375963464	-5.6651232785977834	0	0
-64.752655375963457	5.6651232785977834	0	0
-39.752655375963464	5.6651232785977808	0	0
-53.24488287878448	-37.282468362817987	0	0
-31.594247784173504	-24.782468362817994	0	0
-58.910006157382256	-27.470187013145452	0	0
-37.259371062771287	-14.970187013145457	0	0
-27.470187013145456	-58.910006157382256	0	0
-14.970187013145459	-37.259371062771287	0	0
-37.282468362817994	-53.24488287878448	0	0
-24.782468362817994	-31.594247784173504	0	0
5.6651232785977781	-64.752655375963457	0	0
5.6651232785977808	-39.752655375963464	0	0
-5.665123278597787	-64.752655375963457	0	0
-5.6651232785977834	-39.752655375963464	0	0
37.282468362818008	-53.244882878784466	0	0
24.782468362818008	-31.594247784173497	0	0
27.470187013145477	-58.910006157382249	0	0
14.970187013145473	-37.25937106277128	0	0
58.910006157382242	-27.470187013145487	0	0
37.25937106277128	-14.970187013145482	0	0
53.244882878784452	-37.282468362818022	0	0
31.59424778417349	-24.782468362818012	0	0
64.752655375963457	5.6651232785977736	0	0
39.752655375963464	5.6651232785977781	0	0
64.752655375963457	-5.6651232785977914	0	0
39.752655375963464	-5.665123278597787	0	0
53.244882878784466	37.282468362818008	0	0
31.594247784173497	24.782468362818008	0	0
58.910006157382249	27.470187013145477	0	0
37.25937106277128	14.970187013145473	0	0
27.470187013145487	58.910006157382242	0	0
14.970187013145482	37.25937106277128	0	0
37.282468362818022	53.244882878784452	0	0
24.782468362818012	31.59424778417349	0	0
-6.2999999999999998	58.700000000000003	0	0
-11.299999999999999	58.700000000000003	0	0
6.2999999999999998	58.700000000000003	0	0
11.299999999999999	58.700000000000003	0	0
6.2999999999999998	48.700000000000003	0	0
11.299999999999999	48.700000000000003	0	0
-6.2999999999999998	48.700000000000003	0	0
-11.299999999999999	48.700000000000003	0	0
-34.805960043841957	47.685691202146558	0	0
-39.136087062764148	45.185691202146558	0	0
-23.894039956158032	53.98569120214654	0	0
-19.563912937235841	56.48569120214654	0	0
-18.894039956158032	45.325437164302173	0	0
-14.563912937235841	47.825437164302159	0	0
-29.80596004384196	39.025437164302168	0	0
-34.136087062764148	36.525437164302168	0	0
-53.985691202146555	23.894039956158043	0	0
-56.485691202146555	19.563912937235848	0	0
-47.685691202146543	34.805960043841971	0	0
-45.185691202146543	39.136087062764162	0	0
-39.025437164302154	29.805960043841967	0	0
-36.525437164302154	34.136087062764162	0	0
-45.325437164302159	18.894039956158043	0	0
-47.825437164302159	14.56391293723585	0	0
-58.700000000000003	-6.2999999999999972	0	0
-58.700000000000003	-11.299999999999994	0	0
-58.700000000000003	6.3000000000000034	0	0
-58.700000000000003	11.300000000000004	0	0
-48.700000000000003	6.3000000000000034	0	0
-48.700000000000003	11.300000000000001	0	0
-48.700000000000003	-6.2999999999999972	0	0
-48.700000000000003	-11.299999999999997	0	0
-47.685691202146558	-34.805960043841949	0	0
-45.185691202146558	-39.13608706276414	0	0
-53.98569120214654	-23.894039956158025	0	0
-56.48569120214654	-19.563912937235834	0	0
-45.325437164302159	-18.894039956158029	0	0
-47.825437164302159	-14.563912937235838	0	0
-39.025437164302168	-29.805960043841957	0	0
-36.525437164302168	-34.136087062764148	0	0
-23.894039956158032	-53.98569120214654	0	0
-19.563912937235841	-56.48569120214654	0	0
-34.805960043841957	-47.685691202146558	0	0
-39.136087062764148	-45.185691202146558	0	0
-29.80596004384196	-39.025437164302168	0	0
-34.136087062764148	-36.525437164302168	0	0
-18.894039956158032	-45.325437164302173	0	0
-14.563912937235841	-47.825437164302159	0	0
6.2999999999999936	-58.700000000000003	0	0
11.299999999999992	-58.700000000000003	0	0
-6.3000000000000069	-58.700000000000003	0	0
-11.300000000000006	-58.700000000000003	0	0
-6.300000000000006	-48.700000000000003	0	0
-11.300000000000006	-48.700000000000003	0	0
6.2999999999999945	-48.700000000000003	0	0
11.299999999999992	-48.700000000000003	0	0
34.805960043841971	-47.685691202146543	0	0
39.136087062764162	-45.185691202146543	0	0
23.894039956158043	-53.985691202146555	0	0
19.563912937235848	-56.485691202146555	0	0
18.894039956158043	-45.325437164302159	0	0
14.56391293723585	-47.825437164302159	0	0
29.805960043841967	-39.025437164302154	0	0
34.136087062764162	-36.525437164302154	0	0
53.985691202146533	-23.894039956158064	0	0
56.485691202146533	-19.563912937235873	0	0
47.685691202146529	-34.805960043841992	0	0
45.185691202146529	-39.136087062764176	0	0
39.025437164302147	-29.805960043841985	0	0
36.525437164302147	-34.136087062764176	0	0
45.325437164302151	-18.894039956158061	0	0
47.825437164302151	-14.56391293723587	0	0
58.700000000000003	6.2999999999999892	0	0
58.700000000000003	11.299999999999988	0	0
58.700000000000003	-6.3000000000000114	0	0
58.700000000000003	-11.30000000000001	0	0
48.700000000000003	-6.3000000000000087	0	0
48.700000000000003	-11.300000000000008	0	0
48.700000000000003	6.2999999999999909	0	0
48.700000000000003	11.29999999999999	0	0
47.685691202146543	34.805960043841971	0	0
45.185691202146543	39.136087062764162	0	0
53.985691202146555	23.894039956158043	0	0
56.485691202146555	19.563912937235848	0	0
45.325437164302159	18.894039956158043	0	0
47.825437164302159	14.56391293723585	0	0
39.025437164302154	29.805960043841967	0	0
36.525437164302154	34.136087062764162	0	0
23.894039956158064	53.985691202146533	0	0
19.563912937235873	56.485691202146533	0	0
34.805960043841992	47.685691202146529	0	0
39.136087062764176	45.185691202146529	0	0
29.805960043841985	39.025437164302147	0	0
34.136087062764176	36.525437164302147	0	0
18.894039956158061	45.325437164302151	0	0
14.56391293723587	47.825437164302151	0	0
90	0	0	0
-90	0	0	0
-7.568809779831863	36.561087490894529	0	1
-2.5809895285325632	36.909869859614986	0	1
2.4068307227666743	37.258652228335734	0	1
-7.3595403585995474	33.568395340114989	0	1
2.6161001439991134	34.265960077556201	0	1
-27.613363773997872	25.129706346970771	0	1
-23.783141558402789	28.343644395403459	0	1
-19.952919342807846	31.557582443836303	0	1
-25.685000944938267	22.831573017613739	0	1
-18.024556513748145	29.259449114479374	0	1
-37.1105513502118	4.0996315058081354	0	1
-35.900941872213302	8.9511101371882322	0	1
-34.691332394215024	13.802588768568386	0	1
-34.199664171383766	3.3738658190090396	0	1
-31.780445215386951	13.076823081769406	0	1
-32.432769651893047	-18.496363229223288	0	1
-34.305802618972585	-13.86044395638914	0	1
-36.178835586052287	-9.224524683555126	0	1
-29.651218088192682	-17.372543448975591	0	1
-33.397284022351904	-8.100704903307312	0	1
-15.366772295847353	-34.027375878955176	0	1
-19.607012776629514	-31.377779557788905	0	1
-23.847253257411811	-28.728183236622883	0	1
-13.777014503147633	-31.48323159048585	0	1
-22.25749546471226	-26.184038948153585	0	1
7.5688097798318354	-36.561087490894515	0	1
2.5809895285325668	-36.909869859614993	0	1
-2.4068307227666752	-37.258652228335741	0	1
7.359540358599542	-33.568395340115018	0	1
-2.6161001439991169	-34.265960077556215	0	1
27.613363773997872	-25.129706346970771	0	1
23.783141558402765	-28.34364439540343	0	1
19.952919342807835	-31.557582443836296	0	1
25.685000944938267	-22.831573017613739	0	1
18.024556513748159	-29.259449114479402	0	1
37.110551350211793	-4.0996315058081496	0	1
35.900941872213302	-8.9511101371882322	0	1
34.691332394215024	-13.802588768568386	0	1
34.199664171383773	-3.3738658190090653	0	1
31.780445215386994	-13.076823081769462	0	1
32.432769651893125	18.496363229223306	0	1
34.305802618972585	13.86044395638914	0	1
36.178835586052294	9.2245246835551296	0	1
29.651218088192682	17.372543448975591	0	1
33.397284022351904	8.100704903307312	0	1
15.366772295847362	34.027375878955162	0	1
19.607012776629524	31.37777955778893	0	1
23.847253257411822	28.728183236622939	0	1
13.777014503147633	31.48323159048585	0	1
22.25749546471226	26.184038948153585	0	1
[NumSegments] = 182
2	4	-1	0	0	0
3	5	-1	0	0	0
6	7	-1	0	0	0
8	9	-1	0	0	0
10	11	-1	0	0	0
12	13	-1	0	0	0
14	15	-1	0	0	0
16	17	-1	0	0	0
18	19	-1	0	0	0
20	21	-1	0	0	0
22	23	-1	0	0	0
24	25	-1	0	0	0
26	27	-1	0	0	0
28	29	-1	0	0	0
30	31	-1	0	0	0
32	33	-1	0	0	0
34	35	-1	0	0	0
36	37	-1	0	0	0
38	39	-1	0	0	0
40	41	-1	0	0	0
42	43	-1	0	0	0
44	45	-1	0	0	0
46	47	-1	0	0	0
48	49	-1	0	0	0
51	57	-1	0	0	0
50	56	-1	0	0	0
51	50	-1	0	0	0
57	56	-1	0	0	0
52	54	-1	0	0	0
53	55	-1	0	0	0
52	53	-1	0	0	0
54	55	-1	0	0	0
145	139	-1	0	0	0
138	144	-1	0	0	0
139	138	-1	0	0	0
145	144	-1	0	0	0
142	143	-1	0	0	0
140	141	-1	0	0	0
141	143	-1	0	0	0
140	142	-1	0	0	0
137	131	-1	0	0	0
136	130	-1	0	0	0
134	132	-1	0	0	0
135	133	-1	0	0	0
129	123	-1	0	0	0
128	122	-1	0	0	0
129	128	-1	0	0	0
123	122	-1	0	0	0
135	134	-1	0	0	0
133	132	-1	0	0	0
136	137	-1	0	0	0
131	130	-1	0	0	0
60	61	-1	0	0	0
63	61	-1	0	0	0
60	62	-1	0	0	0
62	63	-1	0	0	0
58	64	-1	0	0	0
59	65	-1	0	0	0
59	58	-1	0	0	0
65	64	-1	0	0	0
71	69	-1	0	0	0
70	68	-1	0	0	0
68	69	-1	0	0	0
70	71	-1	0	0	0
66	67	-1	0	0	0
72	73	-1	0	0	0
67	73	-1	0	0	0
66	72	-1	0	0	0
79	78	-1	0	0	0
77	76	-1	0	0	0
77	79	-1	0	0	0
76	78	-1	0	0	0
74	80	-1	0	0	0
75	81	-1	0	0	0
74	75	-1	0	0	0
80	81	-1	0	0	0
85	87	-1	0	0	0
84	86	-1	0	0	0
87	86	-1	0	0	0
85	84	-1	0	0	0
82	83	-1	0	0	0
83	89	-1	0	0	0
89	88	-1	0	0	0
82	88	-1	0	0	0
93	95	-1	0	0	0
92	94	-1	0	0	0
95	94	-1	0	0	0
93	92	-1	0	0	0
90	96	-1	0	0	0
97	96	-1	0	0	0
91	97	-1	0	0	0
90	91	-1	0	0	0
103	101	-1	0	0	0
102	100	-1	0	0	0
103	102	-1	0	0	0
101	100	-1	0	0	0
104	98	-1	0	0	0
105	99	-1	0	0	0
104	105	-1	0	0	0
98	99	-1	0	0	0
111	109	-1	0	0	0
110	108	-1	0	0	0
108	109	-1	0	0	0
111	110	-1	0	0	0
112	106	-1	0	0	0
113	107	-1	0	0	0
112	113	-1	0	0	0
106	107	-1	0	0	0
119	117	-1	0	0	0
118	116	-1	0	0	0
117	116	-1	0	0	0
118	119	-1	0	0	0
120	121	-1	0	0	0
121	115	-1	0	0	0
114	120	-1	0	0	0
115	114	-1	0	0	0
127	126	-1	0	0	0
125	124	-1	0	0	0
126	124	-1	0	0	0
127	125	-1	0	0	0
148	149	-1	0	0	1
149	150	-1	0	0	1
148	151	-1	0	0	1
150	152	-1	0	0	1
152	151	-1	0	0	1
4	5	-1	0	0	0
47	49	-1	0	0	0
43	45	-1	0	0	0
39	41	-1	0	0	0
35	37	-1	0	0	0
31	33	-1	0	0	0
27	29	-1	0	0	0
23	25	-1	0	0	0
19	21	-1	0	0	0
15	17	-1	0	0	0
11	13	-1	0	0	0
7	9	-1	0	0	0
153	154	-1	0	0	1
154	155	-1	0	0	1
153	156	-1	0	0	1
155	157	-1	0	0	1
157	156	-1	0	0	1
158	159	-1	0	0	1
159	160	-1	0	0	1
158	161	-1	0	0	1
160	162	-1	0	0	1
162	161	-1	0	0	1
163	164	-1	0	0	1
164	165	-1	0	0	1
163	166	-1	0	0	1
165	167	-1	0	0	1
167	166	-1	0	0	1
168	169	-1	0	0	1
169	170	-1	0	0	1
168	171	-1	0	0	1
170	172	-1	0	0	1
172	171	-1	0	0	1
173	174	-1	0	0	1
174	175	-1	0	0	1
173	176	-1	0	0	1
175	177	-1	0	0	1
177	176	-1	0	0	1
178	179	-1	0	0	1
179	180	-1	0	0	1
178	181	-1	0	0	1
180	182	-1	0	0	1
182	181	-1	0	0	1
183	184	-1	0	0	1
184	185	-1	0	0	1
183	186	-1	0	0	1
185	187	-1	0	0	1
187	186	-1	0	0	1
188	189	-1	0	0	1
189	190	-1	0	0	1
188	191	-1	0	0	1
190	192	-1	0	0	1
192	191	-1	0	0	1
193	194	-1	0	0	1
194	195	-1	0	0	1
193	196	-1	0	0	1
195	197	-1	0	0	1
197	196	-1	0	0	1
[NumArcSegments] = 26
0	1	180	1	0	0	0	1
1	0	180	1	0	0	0	1
14	20	19.999999999999996	1	0	0	0	1
18	24	20.000000000000046	1	0	0	0	1
22	28	20.000000000000025	1	0	0	0	1
26	32	20.000000000000046	1	0	0	0	1
30	36	20.000000000000007	1	0	0	0	1
34	40	20.000000000000053	1	0	0	0	1
38	44	20.000000000000028	1	0	0	0	1
42	48	19.999999999999972	1	0	0	0	1
46	3	20.000000000000032	1	0	0	0	1
2	8	19.999999999999989	1	0	0	0	1
6	12	19.999999999999989	1	0	0	0	1
10	16	20	1	0	0	0	1
147	146	180	1	1	0	0	1
146	147	180	1	1	0	0	1
163	170	30	1	0	0	1	1
158	165	30	1	0	0	1	1
153	160	30	1	0	0	1	1
148	155	30	1	0	0	1	1
193	150	30	1	0	0	1	1
188	195	30	1	0	0	1	1
183	190	30	1	0	0	1	1
178	185	30	1	0	0	1	1
173	180	30	1	0	0	1	1
168	175	30	1	0	0	1	1
[NumHoles] = 0
[NumBlockLabels] = 38
-82.5	32	1	-1	0	0	0	1	0
-60	34.5	5	-1	0	0	0	1	0
-13.085711874810052	-4.8710003828239987	5	-1	0	0	1	1	0
-33.149999999999999	29.800000000000001	1	-1	0	0	0	1	0
-18.5	51.5	3	-1	3	0	0	200	0
-7.5	54.5	3	-1	2	0	0	-200	0
7	54	3	-1	2	0	0	200	0
19.5	51.5	3	-1	2	0	0	200	0
34.5	43.5	3	-1	2	0	0	-200	0
41.5	34.5	3	-1	1	0	0	200	0
51.5	18.5	3	-1	1	0	0	-200	0
55.5	8.5	3	-1	1	0	0	-200	0
55	-8.5	3	-1	1	0	0	200	0
51.5	-17	3	-1	3	0	0	-200	0
43.5	-35.5	3	-1	3	0	0	200	0
35	-40	3	-1	3	0	0	200	0
19.5	-51.5	3	-1	3	0	0	-200	0
10	-54	3	-1	2	0	0	200	0
-20.5	-52	3	-1	2	0	0	-200	0
-34.5	-43	3	-1	2	0	0	200	0
-44	-35.5	3	-1	1	0	0	-200	0
-51	-20	3	-1	1	0	0	200	0
-54	-9	3	-1	1	0	0	200	0
-54	7.5	3	-1	1	0	0	-200	0
-52.5	19.5	3	-1	3	0	0	200	0
-43	35	3	-1	3	0	0	-200	0
-34.5	43.5	3	-1	3	0	0	-200	0
-3.0846069969816936	35.767486355894903	2	-1	0	2974.8800000000001	1	1	0
-34.970096953307035	8.1191255453565141	2	-1	0	3046.8800000000001	1	1	0
-18.528101510041214	-30.749590809937025	2	-1	0	3118.8800000000001	1	1	0
23.519100473093296	-27.123417806048998	2	-1	0	3190.8800000000001	1	1	0
33.063704987236605	13.986396714734616	2	-1	0	3262.8800000000001	1	1	0
2.6549406858451841	-35.100303274397369	2	-1	0	814	1	1	0
34.202793944035349	-8.3215915798532141	2	-1	0	886	1	1	0
18.483548481777738	29.957276837553142	2	-1	0	958	1	1	0
-22.779332749590221	26.83620687585103	2	-1	0	1030	1	1	0
-32.56195036206806	-13.371588859153576	2	-1	0	1102	1	1	0
-9	-53.899999999999999	3	-1	2	0	0	-200	0
