[Format]      =  4.0
[Frequency]   =  0
[Precision]   =  1e-008
[MinAngle]    =  30
[DoSmartMesh] =  1
[Depth]       =  30
[LengthUnits] =  millimeters
[ProblemType] =  planar
[Coordinates] =  cartesian
[ACSolver]    =  0
[PrevType]    =  0
[PrevSoln]    =  ""
[Comment]     =  "Add comments here."
[PointProps]   = 0
[BdryProps]   = 1
  <BeginBdry>
    <BdryName> = "Limite"
    <BdryType> = 0
    <A_0> = 0
    <A_1> = 0
    <A_2> = 0
    <Phi> = 0
    <c0> = 0
    <c0i> = 0
    <c1> = 0
    <c1i> = 0
    <Mu_ssd> = 0
    <Sigma_ssd> = 0
    <innerangle> = 0
    <outerangle> = 0
  <EndBdry>
[BlockProps]  = 6
  <BeginBlock>
    <BlockName> = "Air"
    <Mu_x> = 1
    <Mu_y> = 1
    <H_c> = 0
    <H_cAngle> = 0
    <J_re> = 0
    <J_im> = 0
    <Sigma> = 0
    <d_lam> = 0
    <Phi_h> = 0
    <Phi_hx> = 0
    <Phi_hy> = 0
    <LamType> = 0
    <LamFill> = 1
    <NStrands> = 0
    <WireD> = 0
    <BHPoints> = 0
  <EndBlock>
  <BeginBlock>
    <BlockName> = "N35"
    <Mu_x> = 1.05
    <Mu_y> = 1.05
    <H_c> = 905659
    <H_cAngle> = 0
    <J_re> = 0
    <J_im> = 0
    <Sigma> = 0.66700000000000004
    <d_lam> = 0
    <Phi_h> = 0
    <Phi_hx> = 0
    <Phi_hy> = 0
    <LamType> = 0
    <LamFill> = 1
    <NStrands> = 0
    <WireD> = 0
    <BHPoints> = 0
  <EndBlock>
  <BeginBlock>
    <BlockName> = "10 AWG"
    <Mu_x> = 1
    <Mu_y> = 1
    <H_c> = 0
    <H_cAngle> = 0
    <J_re> = 0
    <J_im> = 0
    <Sigma> = 58
    <d_lam> = 0
    <Phi_h> = 0
    <Phi_hx> = 0
    <Phi_hy> = 0
    <LamType> = 3
    <LamFill> = 1
    <NStrands> = 1
    <WireD> = 2.5887801724742099
    <BHPoints> = 0
  <EndBlock>
  <BeginBlock>
    <BlockName> = "1010 Steel"
    <Mu_x> = 902.60000000000002
    <Mu_y> = 902.60000000000002
    <H_c> = 0
    <H_cAngle> = 0
    <J_re> = 0
    <J_im> = 0
    <Sigma> = 5.7999999999999998
    <d_lam> = 0
    <Phi_h> = 20
    <Phi_hx> = 0
    <Phi_hy> = 0
    <LamType> = 0
    <LamFill> = 1
    <NStrands> = 0
    <WireD> = 0
    <BHPoints> = 38
      0	0
      0.21186199999999999	79.577472
      0.26566499999999998	100.182101
      0.33237699999999998	126.121793
      0.414377	158.77793
      0.51381100000000002	199.88957099999999
      0.63189899999999999	251.646061
      0.76778400000000002	316.80362000000002
      0.917018	398.83212800000001
      1.0703530000000001	502.09990099999999
      1.2142550000000001	632.10632499999997
      1.3346370000000001	795.77471500000001
      1.4229810000000001	1001.821011
      1.480634	1261.2179289999999
      1.5172140000000001	1587.779301
      1.5445150000000001	1998.89571
      1.571296	2516.4606050000002
      1.6020490000000001	3168.036204
      1.638404	3988.3212819999999
      1.68049	5020.9990129999996
      1.727311	6321.0632500000002
      1.776659	7957.747155
      1.8254010000000001	10018.210114
      1.870557	12612.179292999999
      1.910809	15877.793009999999
      1.947222	19988.957103000001
      1.9823280000000001	25164.606051999999
      2.0182519999999999	31680.362036999999
      2.0553979999999998	39883.212823000002
      2.0925449999999999	50209.990126999997
      2.1280950000000001	63210.632496999999
      2.1616119999999999	79577.471546000001
      2.1946439999999998	100182.101136
      2.2303389999999998	126121.79292599999
      2.272386	158777.930096
      2.3242820000000002	199889.57102999999
      2.3893559999999998	251646.06052200001
      2.471238	316803.62037000002
  <EndBlock>
  <BeginBlock>
    <BlockName> = "1020 Steel"
    <Mu_x> = 760
    <Mu_y> = 760
    <H_c> = 0
    <H_cAngle> = 0
    <J_re> = 0
    <J_im> = 0
    <Sigma> = 5.7999999999999998
    <d_lam> = 0
    <Phi_h> = 20
    <Phi_hx> = 0
    <Phi_hy> = 0
    <LamType> = 0
    <LamFill> = 1
    <NStrands> = 0
    <WireD> = 0
    <BHPoints> = 38
      0	0
      0.16625200000000001	79.577472
      0.20872499999999999	100.182101
      0.26163500000000001	126.121793
      0.32714599999999999	158.77793
      0.407495	199.88957099999999
      0.50460400000000005	251.646061
      0.61936599999999997	316.80362000000002
      0.750502	398.83212800000001
      0.89319499999999996	502.09990099999999
      1.0382579999999999	632.10632499999997
      1.173276	795.77471500000001
      1.2867310000000001	1001.821011
      1.3735329999999999	1261.2179289999999
      1.4376580000000001	1587.779301
      1.4891890000000001	1998.89571
      1.5383439999999999	2516.4606050000002
      1.591321	3168.036204
      1.6497230000000001	3988.3212819999999
      1.711927	5020.9990129999996
      1.7747120000000001	6321.0632500000002
      1.8349759999999999	7957.747155
      1.8914420000000001	10018.210114
      1.945262	12612.179292999999
      1.998705	15877.793009999999
      2.0528520000000001	19988.957103000001
      2.1061839999999998	25164.606051999999
      2.1551490000000002	31680.362036999999
      2.1963750000000002	39883.212823000002
      2.2290079999999999	50209.990126999997
      2.2554500000000002	63210.632496999999
      2.2800530000000001	79577.471546000001
      2.3071359999999999	100182.101136
      2.3399749999999999	126121.79292599999
      2.3810440000000002	158777.930096
      2.4327079999999999	199889.57102999999
      2.4977480000000001	251646.06052200001
      2.5796269999999999	316803.62037000002
  <EndBlock>
  <BeginBlock>
    <BlockName> = "Aluminum, 1100"
    <Mu_x> = 1
    <Mu_y> = 1
    <H_c> = 0
    <H_cAngle> = 0
    <J_re> = 0
    <J_im> = 0
    <Sigma> = 34.450000000000003
    <d_lam> = 0
    <Phi_h> = 0
    <Phi_hx> = 0
    <Phi_hy> = 0
    <LamType> = 0
    <LamFill> = 1
    <NStrands> = 0
    <WireD> = 0
    <BHPoints> = 0
  <EndBlock>
[CircuitProps]  = 3
  <BeginCircuit>
    <CircuitName> = "A"
    <TotalAmps_re> = 0
    <TotalAmps_im> = 0
    <CircuitType> = 1
  <EndCircuit>
  <BeginCircuit>
    <CircuitName> = "B"
    <TotalAmps_re> = 0
    <TotalAmps_im> = 0
    <CircuitType> = 1
  <EndCircuit>
  <BeginCircuit>
    <CircuitName> = "C"
    <TotalAmps_re> = 0
    <TotalAmps_im> = 0
    <CircuitType> = 1
  <EndCircuit>
[NumPoints] = 233
0	0	0	1
-75	0	0	0
75	0	0	0
-5.6651232785977861	64.752655375963457	0	0
5.665123278597779	64.752655375963457	0	0
-5.6651232785977861	39.752655375963464	0	0
5.665123278597779	39.752655375963464	0	0
-37.282468362817994	53.24488287878448	0	0
-24.782468362818001	31.594247784173501	0	0
-27.470187013145463	58.910006157382256	0	0
-14.970187013145466	37.259371062771287	0	0
-58.910006157382249	27.47018701314547	0	0
-37.259371062771287	14.970187013145466	0	0
-53.244882878784466	37.282468362818008	0	0
-31.594247784173501	24.782468362818001	0	0
-64.752655375963457	-5.6651232785977808	0	0
-39.752655375963464	-5.6651232785977834	0	0
-64.752655375963457	5.6651232785977834	0	0
-39.752655375963464	5.6651232785977808	0	0
-53.24488287878448	-37.282468362817987	0	0
-31.594247784173504	-24.782468362817994	0	0
-58.910006157382256	-27.470187013145452	0	0
-37.259371062771287	-14.970187013145457	0	0
-27.470187013145456	-58.910006157382256	0	0
-14.970187013145459	-37.259371062771287	0	0
-37.282468362817994	-53.24488287878448	0	0
-24.782468362817994	-31.594247784173504	0	0
5.6651232785977781	-64.752655375963457	0	0
5.6651232785977808	-39.752655375963464	0	0
-5.665123278597787	-64.752655375963457	0	0
-5.6651232785977834	-39.752655375963464	0	0
37.282468362818008	-53.244882878784466	0	0
24.782468362818008	-31.594247784173497	0	0
27.470187013145477	-58.910006157382249	0	0
14.970187013145473	-37.25937106277128	0	0
58.910006157382242	-27.470187013145487	0	0
37.25937106277128	-14.970187013145482	0	0
53.244882878784452	-37.282468362818022	0	0
31.59424778417349	-24.782468362818012	0	0
64.752655375963457	5.6651232785977736	0	0
39.752655375963464	5.6651232785977781	0	0
64.752655375963457	-5.6651232785977914	0	0
39.752655375963464	-5.665123278597787	0	0
53.244882878784466	37.282468362818008	0	0
31.594247784173497	24.782468362818008	0	0
58.910006157382249	27.470187013145477	0	0
37.25937106277128	14.970187013145473	0	0
27.470187013145487	58.910006157382242	0	0
14.970187013145482	37.25937106277128	0	0
37.282468362818022	53.244882878784452	0	0
24.782468362818012	31.59424778417349	0	0
7.2446513857252848	-13.134497565545107	0	1
-7.2446513857252848	13.134497565545107	0	1
-10.811896660136842	-10.397253993748716	0	1
-14.562004167644986	-3.5983377581171703	0	1
-28.324560080863705	-20.056789174715767	0	1
-32.074667588371852	-13.257872939084212	0	1
-30.513643008454487	-21.264231072336607	0	1
-34.263750515962649	-14.465314836705074	0	1
-32.264909350527184	-22.230184590433325	0	1
-36.015016858035288	-15.431268354801759	0	1
-12.187254328471168	-35.138593663923032	0	1
-11.125965578375702	-32.875041988144304	0	1
-18.156168977558977	-29.578861097611185	0	1
-19.217457727654406	-31.842412773389924	0	1
-2.6356555776119368	-14.766628581914192	0	1
-9.6658589767951764	-11.470447691381102	0	1
-13.036285328547565	-36.949435004546046	0	1
-20.066488727730775	-33.653254114012931	0	1
10.794251275448865	-35.591207792762475	0	1
10.322369617390404	-33.136146143681657	0	1
2.697369077194999	-34.601729665362775	0	1
3.1692507352534922	-37.056791314443629	0	1
6.5473163529225022	-13.495652951034094	0	1
-1.0776841872728831	-14.961236472715207	0	1
11.171756601895652	-37.555257112027284	0	1
3.546756061700274	-39.020840633708318	0	1
29.652719775254351	-22.449190245426873	0	1
27.827910463752648	-20.740368728516344	0	1
22.520603824663418	-26.407913570481256	0	1
24.345413136165163	-28.116735087391778	0	1
13.229435971738543	-7.0697965932318159	0	1
7.9221293326493454	-12.737341435196695	0	1
31.112567224455788	-23.81624745895536	0	1
25.80526058536654	-29.483792300920193	0	1
37.184857179788786	-0.73234504425074409	0	1
34.704135348850222	-0.42247539826325065	0	1
33.741733358281287	-8.1271720636455171	0	1
36.222455189219893	-8.4370417096329913	0	1
14.858360701340947	2.0564817696368145	0	1
13.895958710772041	-5.6482148957454132	0	1
39.169434644539741	-0.98024076104077718	0	1
38.207032653970785	-8.6849374264230015	0	1
30.513643008454487	21.264231072336607	0	1
28.324560080863694	20.056789174715757	0	1
32.074667588371874	13.257872939084203	0	1
34.263750515962649	14.465314836705074	0	1
10.811896660136851	10.397253993748713	0	1
14.562004167644988	3.5983377581171636	0	1
32.264909350527176	22.230184590433318	0	1
36.015016858035288	15.431268354801754	0	1
12.187254328471154	35.138593663923025	0	1
11.125965578375705	32.875041988144304	0	1
18.156168977558991	29.578861097611192	0	1
19.217457727654413	31.842412773389931	0	1
2.6356555776119337	14.766628581914185	0	1
9.6658589767951764	11.470447691381102	0	1
13.036285328547578	36.949435004546032	0	1
20.066488727730775	33.653254114012931	0	1
-10.794251275448865	35.591207792762475	0	1
-10.322369617390407	33.13614614368165	0	1
-2.6973690771949905	34.601729665362797	0	1
-3.1692507352534851	37.056791314443629	0	1
-6.5473163529224987	13.495652951034092	0	1
1.0776841872728913	14.961236472715205	0	1
-11.171756601895641	37.555257112027277	0	1
-3.5467560617002669	39.020840633708318	0	1
-29.65271977525434	22.449190245426859	0	1
-27.827910463752641	20.740368728516344	0	1
-22.5206038246634	26.407913570481249	0	1
-24.345413136165181	28.116735087391788	0	1
-13.229435971738541	7.0697965932318159	0	1
-7.9221293326493427	12.737341435196699	0	1
-31.112567224455788	23.81624745895536	0	1
-25.80526058536654	29.483792300920193	0	1
-37.184857179788807	0.73234504425074975	0	1
-34.704135348850237	0.42247539826323965	0	1
-33.741733358281287	8.1271720636455242	0	1
-36.2224551892199	8.4370417096330055	0	1
-14.858360701340946	-2.0564817696368118	0	1
-13.895958710772044	5.6482148957454195	0	1
-39.169434644539763	0.98024076104078206	0	1
-38.207032653970785	8.6849374264230015	0	1
-6.2999999999999998	58.700000000000003	0	0
-11.299999999999999	58.700000000000003	0	0
6.2999999999999998	58.700000000000003	0	0
11.299999999999999	58.700000000000003	0	0
6.2999999999999998	48.700000000000003	0	0
11.299999999999999	48.700000000000003	0	0
-6.2999999999999998	48.700000000000003	0	0
-11.299999999999999	48.700000000000003	0	0
-34.805960043841957	47.685691202146558	0	0
-39.136087062764148	45.185691202146558	0	0
-23.894039956158032	53.98569120214654	0	0
-19.563912937235841	56.48569120214654	0	0
-18.894039956158032	45.325437164302173	0	0
-14.563912937235841	47.825437164302159	0	0
-29.80596004384196	39.025437164302168	0	0
-34.136087062764148	36.525437164302168	0	0
-53.985691202146555	23.894039956158043	0	0
-56.485691202146555	19.563912937235848	0	0
-47.685691202146543	34.805960043841971	0	0
-45.185691202146543	39.136087062764162	0	0
-39.025437164302154	29.805960043841967	0	0
-36.525437164302154	34.136087062764162	0	0
-45.325437164302159	18.894039956158043	0	0
-47.825437164302159	14.56391293723585	0	0
-58.700000000000003	-6.2999999999999972	0	0
-58.700000000000003	-11.299999999999994	0	0
-58.700000000000003	6.3000000000000034	0	0
-58.700000000000003	11.300000000000004	0	0
-48.700000000000003	6.3000000000000034	0	0
-48.700000000000003	11.300000000000001	0	0
-48.700000000000003	-6.2999999999999972	0	0
-48.700000000000003	-11.299999999999997	0	0
-47.685691202146558	-34.805960043841949	0	0
-45.185691202146558	-39.13608706276414	0	0
-53.98569120214654	-23.894039956158025	0	0
-56.48569120214654	-19.563912937235834	0	0
-45.325437164302159	-18.894039956158029	0	0
-47.825437164302159	-14.563912937235838	0	0
-39.025437164302168	-29.805960043841957	0	0
-36.525437164302168	-34.136087062764148	0	0
-23.894039956158032	-53.98569120214654	0	0
-19.563912937235841	-56.48569120214654	0	0
-34.805960043841957	-47.685691202146558	0	0
-39.136087062764148	-45.185691202146558	0	0
-29.80596004384196	-39.025437164302168	0	0
-34.136087062764148	-36.525437164302168	0	0
-18.894039956158032	-45.325437164302173	0	0
-14.563912937235841	-47.825437164302159	0	0
6.2999999999999936	-58.700000000000003	0	0
11.299999999999992	-58.700000000000003	0	0
-6.3000000000000069	-58.700000000000003	0	0
-11.300000000000006	-58.700000000000003	0	0
-6.300000000000006	-48.700000000000003	0	0
-11.300000000000006	-48.700000000000003	0	0
6.2999999999999945	-48.700000000000003	0	0
11.299999999999992	-48.700000000000003	0	0
34.805960043841971	-47.685691202146543	0	0
39.136087062764162	-45.185691202146543	0	0
23.894039956158043	-53.985691202146555	0	0
19.563912937235848	-56.485691202146555	0	0
18.894039956158043	-45.325437164302159	0	0
14.56391293723585	-47.825437164302159	0	0
29.805960043841967	-39.025437164302154	0	0
34.136087062764162	-36.525437164302154	0	0
53.985691202146533	-23.894039956158064	0	0
56.485691202146533	-19.563912937235873	0	0
47.685691202146529	-34.805960043841992	0	0
45.185691202146529	-39.136087062764176	0	0
39.025437164302147	-29.805960043841985	0	0
36.525437164302147	-34.136087062764176	0	0
45.325437164302151	-18.894039956158061	0	0
47.825437164302151	-14.56391293723587	0	0
58.700000000000003	6.2999999999999892	0	0
58.700000000000003	11.299999999999988	0	0
58.700000000000003	-6.3000000000000114	0	0
58.700000000000003	-11.30000000000001	0	0
48.700000000000003	-6.3000000000000087	0	0
48.700000000000003	-11.300000000000008	0	0
48.700000000000003	6.2999999999999909	0	0
48.700000000000003	11.29999999999999	0	0
47.685691202146543	34.805960043841971	0	0
45.185691202146543	39.136087062764162	0	0
53.985691202146555	23.894039956158043	0	0
56.485691202146555	19.563912937235848	0	0
45.325437164302159	18.894039956158043	0	0
47.825437164302159	14.56391293723585	0	0
39.025437164302154	29.805960043841967	0	0
36.525437164302154	34.136087062764162	0	0
23.894039956158064	53.985691202146533	0	0
19.563912937235873	56.485691202146533	0	0
34.805960043841992	47.685691202146529	0	0
39.136087062764176	45.185691202146529	0	0
29.805960043841985	39.025437164302147	0	0
34.136087062764176	36.525437164302147	0	0
18.894039956158061	45.325437164302151	0	0
14.56391293723587	47.825437164302151	0	0
4.8297675904835202	-8.756331710363396	0	1
-4.8297675904835202	8.756331710363396	0	1
90	0	0	0
-90	0	0	0
[NumSegments] = 200
3	5	-1	0	0	0
4	6	-1	0	0	0
7	8	-1	0	0	0
9	10	-1	0	0	0
11	12	-1	0	0	0
13	14	-1	0	0	0
15	16	-1	0	0	0
17	18	-1	0	0	0
19	20	-1	0	0	0
21	22	-1	0	0	0
23	24	-1	0	0	0
25	26	-1	0	0	0
27	28	-1	0	0	0
29	30	-1	0	0	0
31	32	-1	0	0	0
33	34	-1	0	0	0
35	36	-1	0	0	0
37	38	-1	0	0	0
39	40	-1	0	0	0
41	42	-1	0	0	0
43	44	-1	0	0	0
45	46	-1	0	0	0
47	48	-1	0	0	0
49	50	-1	0	0	0
57	55	-1	0	0	1
56	58	-1	0	0	1
57	58	-1	0	0	1
55	53	-1	0	0	1
56	54	-1	0	0	1
59	60	-1	0	0	1
59	57	-1	0	0	1
60	58	-1	0	0	1
61	62	-1	0	0	1
63	64	-1	0	0	1
61	64	-1	0	0	1
62	65	-1	0	0	1
63	66	-1	0	0	1
67	68	-1	0	0	1
67	61	-1	0	0	1
68	64	-1	0	0	1
69	70	-1	0	0	1
71	72	-1	0	0	1
69	72	-1	0	0	1
70	73	-1	0	0	1
71	74	-1	0	0	1
75	76	-1	0	0	1
75	69	-1	0	0	1
76	72	-1	0	0	1
77	78	-1	0	0	1
79	80	-1	0	0	1
77	80	-1	0	0	1
78	81	-1	0	0	1
79	82	-1	0	0	1
83	84	-1	0	0	1
83	77	-1	0	0	1
84	80	-1	0	0	1
85	86	-1	0	0	1
87	88	-1	0	0	1
85	88	-1	0	0	1
86	89	-1	0	0	1
87	90	-1	0	0	1
91	92	-1	0	0	1
91	85	-1	0	0	1
92	88	-1	0	0	1
93	94	-1	0	0	1
95	96	-1	0	0	1
93	96	-1	0	0	1
94	97	-1	0	0	1
95	98	-1	0	0	1
99	100	-1	0	0	1
99	93	-1	0	0	1
100	96	-1	0	0	1
101	102	-1	0	0	1
103	104	-1	0	0	1
101	104	-1	0	0	1
102	105	-1	0	0	1
103	106	-1	0	0	1
107	108	-1	0	0	1
107	101	-1	0	0	1
108	104	-1	0	0	1
109	110	-1	0	0	1
111	112	-1	0	0	1
109	112	-1	0	0	1
110	113	-1	0	0	1
111	114	-1	0	0	1
115	116	-1	0	0	1
115	109	-1	0	0	1
116	112	-1	0	0	1
117	118	-1	0	0	1
119	120	-1	0	0	1
117	120	-1	0	0	1
118	121	-1	0	0	1
119	122	-1	0	0	1
123	124	-1	0	0	1
123	117	-1	0	0	1
124	120	-1	0	0	1
125	126	-1	0	0	1
127	128	-1	0	0	1
125	128	-1	0	0	1
126	129	-1	0	0	1
127	130	-1	0	0	1
131	132	-1	0	0	1
131	125	-1	0	0	1
132	128	-1	0	0	1
134	140	-1	0	0	0
133	139	-1	0	0	0
134	133	-1	0	0	0
140	139	-1	0	0	0
135	137	-1	0	0	0
136	138	-1	0	0	0
135	136	-1	0	0	0
137	138	-1	0	0	0
228	222	-1	0	0	0
221	227	-1	0	0	0
222	221	-1	0	0	0
228	227	-1	0	0	0
225	226	-1	0	0	0
223	224	-1	0	0	0
224	226	-1	0	0	0
223	225	-1	0	0	0
220	214	-1	0	0	0
219	213	-1	0	0	0
217	215	-1	0	0	0
218	216	-1	0	0	0
212	206	-1	0	0	0
211	205	-1	0	0	0
212	211	-1	0	0	0
206	205	-1	0	0	0
218	217	-1	0	0	0
216	215	-1	0	0	0
219	220	-1	0	0	0
214	213	-1	0	0	0
143	144	-1	0	0	0
146	144	-1	0	0	0
143	145	-1	0	0	0
145	146	-1	0	0	0
141	147	-1	0	0	0
142	148	-1	0	0	0
142	141	-1	0	0	0
148	147	-1	0	0	0
154	152	-1	0	0	0
153	151	-1	0	0	0
151	152	-1	0	0	0
153	154	-1	0	0	0
149	150	-1	0	0	0
155	156	-1	0	0	0
150	156	-1	0	0	0
149	155	-1	0	0	0
162	161	-1	0	0	0
160	159	-1	0	0	0
160	162	-1	0	0	0
159	161	-1	0	0	0
157	163	-1	0	0	0
158	164	-1	0	0	0
157	158	-1	0	0	0
163	164	-1	0	0	0
168	170	-1	0	0	0
167	169	-1	0	0	0
170	169	-1	0	0	0
168	167	-1	0	0	0
165	166	-1	0	0	0
166	172	-1	0	0	0
172	171	-1	0	0	0
165	171	-1	0	0	0
176	178	-1	0	0	0
175	177	-1	0	0	0
178	177	-1	0	0	0
176	175	-1	0	0	0
173	179	-1	0	0	0
180	179	-1	0	0	0
174	180	-1	0	0	0
173	174	-1	0	0	0
186	184	-1	0	0	0
185	183	-1	0	0	0
186	185	-1	0	0	0
184	183	-1	0	0	0
187	181	-1	0	0	0
188	182	-1	0	0	0
187	188	-1	0	0	0
181	182	-1	0	0	0
194	192	-1	0	0	0
193	191	-1	0	0	0
191	192	-1	0	0	0
194	193	-1	0	0	0
195	189	-1	0	0	0
196	190	-1	0	0	0
195	196	-1	0	0	0
189	190	-1	0	0	0
202	200	-1	0	0	0
201	199	-1	0	0	0
200	199	-1	0	0	0
201	202	-1	0	0	0
203	204	-1	0	0	0
204	198	-1	0	0	0
197	203	-1	0	0	0
198	197	-1	0	0	0
210	209	-1	0	0	0
208	207	-1	0	0	0
209	207	-1	0	0	0
210	208	-1	0	0	0
[NumArcSegments] = 42
1	2	180	1	0	0	0	1
2	1	180	1	0	0	0	1
15	21	19.999999999999996	1	0	0	0	1
19	25	20.000000000000046	1	0	0	0	1
23	29	20.000000000000025	1	0	0	0	1
27	33	20.000000000000046	1	0	0	0	1
31	37	20.000000000000007	1	0	0	0	1
35	41	20.000000000000053	1	0	0	0	1
39	45	20.000000000000028	1	0	0	0	1
43	49	19.999999999999972	1	0	0	0	1
47	4	20.000000000000032	1	0	0	0	1
3	9	19.999999999999989	1	0	0	0	1
7	13	19.999999999999989	1	0	0	0	1
11	17	20	1	0	0	0	1
51	82	2.9999999999999964	1	0	0	1	1
81	90	5.9999999999999973	1	0	0	1	1
89	98	5.9999999999999973	1	0	0	1	1
97	106	6.0000000000000027	1	0	0	1	1
105	114	5.9999999999999929	1	0	0	1	1
113	52	3.0000000000000044	1	0	0	1	1
52	122	2.999999999999988	1	0	0	1	1
121	130	5.9999999999999956	1	0	0	1	1
129	54	6.0000000000000053	1	0	0	1	1
53	66	6.0000000000000027	1	0	0	1	1
65	74	5.9999999999999876	1	0	0	1	1
73	51	2.9999999999999978	1	0	0	1	1
229	230	180	1	0	0	1	1
230	229	180	1	0	0	1	1
14	12	30	1	0	0	0	1
10	8	30	1	0	0	0	1
6	5	30	1	0	0	0	1
50	48	30	1	0	0	0	1
46	44	30	1	0	0	0	1
42	40	30	1	0	0	0	1
38	36	30	1	0	0	0	1
34	32	30	1	0	0	0	1
30	28	30	1	0	0	0	1
26	24	30	1	0	0	0	1
22	20	30	1	0	0	0	1
18	16	30	1	0	0	0	1
232	231	180	1	1	0	0	1
231	232	180	1	1	0	0	1
[NumHoles] = 0
[NumBlockLabels] = 39
-6.9893778564174545	1.2839770948976004	6	-1	0	0	1	1	0
-82.5	32	1	-1	0	0	0	1	0
-60	34.5	5	-1	0	0	0	1	0
-12.50486879138596	-6.2121458861027028	5	-1	0	0	1	1	0
-33.149999999999999	29.800000000000001	1	-1	0	0	0	1	0
-18.5	51.5	3	-1	3	0	0	200	0
-7.5	54.5	3	-1	2	0	0	200	0
7	54	3	-1	2	0	0	200	0
19.5	51.5	3	-1	2	0	0	200	0
34.5	43.5	3	-1	2	0	0	-200	0
41.5	34.5	3	-1	1	0	0	200	0
51.5	18.5	3	-1	1	0	0	-200	0
55.5	8.5	3	-1	1	0	0	-200	0
55	-8.5	3	-1	1	0	0	200	0
51.5	-17	3	-1	3	0	0	200	0
43.5	-35.5	3	-1	3	0	0	-200	0
35	-40	3	-1	3	0	0	-200	0
19.5	-51.5	3	-1	3	0	0	-200	0
10	-54	3	-1	2	0	0	200	0
-8	-54	3	-1	2	0	0	-200	0
-20.5	-52	3	-1	2	0	0	-200	0
-34.5	-43	3	-1	2	0	0	200	0
-44	-35.5	3	-1	1	0	0	-200	0
-51	-20	3	-1	1	0	0	200	0
-54	-9	3	-1	1	0	0	200	0
-54	7.5	3	-1	1	0	0	-200	0
-52.5	19.5	3	-1	3	0	0	200	0
-43	35	3	-1	3	0	0	-200	0
-34.5	43.5	3	-1	3	0	0	-200	0
33.186497182277243	18.304819167932525	2	-1	0	388.88	1	1	0
-7.1537259361666852	37.218734600066966	2	-1	0	460.88	1	1	0
-37.607742957029934	4.697623833170578	2	-1	0	532.88000000000011	1	1	0
-16.0891374514473	-34.315443404805997	2	-1	0	604.88000000000011	1	1	0
27.664109162366671	-25.905734196364104	2	-1	0	676.88000000000011	1	1	0
-33.186497182277243	-18.304819167932525	2	-1	0	388.88	1	1	0
7.1537259361666852	-37.218734600066966	2	-1	0	460.88	1	1	0
37.607742957029934	-4.697623833170578	2	-1	0	532.88000000000011	1	1	0
16.0891374514473	34.315443404805997	2	-1	0	604.88000000000011	1	1	0
-27.664109162366671	25.905734196364104	2	-1	0	676.88000000000011	1	1	0
